10

C         -5.07961        1.29852       -0.00339
C         -3.25558        0.61570        0.00401
H         -5.53707        0.75853       -0.87804
H         -5.64736        2.24583        0.04113
H         -5.53981        0.71698        0.84439
H         -2.81009        1.17284       -0.84837
H         -2.69772       -0.35000       -0.04355
H         -2.81388        1.13140        0.88133
H         -4.40043        2.16420       -0.00389
H         -3.92663       -0.27441        0.00639

10

C         -5.14818        1.38442       -0.00168
C         -3.18912        0.52782        0.00224
H         -5.53764        0.80498       -0.89921
H         -5.80065        2.29708        0.03920
H         -5.53606        0.75858        0.86910
H         -2.81165        1.13119       -0.87326
H         -2.54383       -0.39991       -0.04130
H         -2.81018        1.08458        0.90261
H         -4.40713        2.24240       -0.00313
H         -3.92375       -0.35155        0.00542

10

C         -5.17075        1.49759        0.00752
C         -3.17059        0.39085       -0.00799
H         -5.48834        0.84629       -0.91711
H         -6.01305        2.27034        0.03145
H         -5.48432        0.79043        0.90249
H         -2.86185        1.11641       -0.88491
H         -2.31980       -0.37355       -0.03213
H         -2.85686        1.06159        0.89965
H         -4.24778        2.28602        0.00033
H         -4.09482       -0.40637        0.00071

10

C         -5.25467        1.64776        0.00759
C         -3.08943        0.26229       -0.00722
H         -5.49897        1.00459       -0.95343
H         -6.17722        2.29536        0.03402
H         -5.48826        0.93820        0.93845
H         -2.86218        0.94457       -0.96005
H         -2.16256       -0.37645       -0.03297
H         -2.85206        0.87991        0.97282
H         -4.40525        2.53346       -0.00262
H         -3.91757       -0.65010        0.00342

10

C         -5.41683        1.70400        0.01096
C         -2.92294        0.17219       -0.01197
H         -5.60196        1.12147       -0.99181
H         -6.32517        2.37264        0.03665
H         -5.59853        1.04814        0.98593
H         -2.74661        0.86955       -0.96437
H         -2.00600       -0.48612       -0.03614
H         -2.74369        0.79834        0.97131
H         -4.50475        2.52693       -0.00433
H         -3.84171       -0.64754        0.00378

10

C         -5.71056        1.91317        0.01918
C         -2.62928       -0.06778       -0.02232
H         -5.76087        1.24811       -0.91737
H         -6.62282        2.59991        0.04290
H         -5.76210        1.16756        0.91691
H         -2.57851        0.77705       -0.84168
H         -1.70208       -0.74252       -0.04274
H         -2.58026        0.69962        0.84522
H         -4.68542        2.54396       -0.00782
H         -3.67629       -0.65949        0.00773

10

C         -5.92735        2.19375        0.03907
C         -2.41180       -0.04927       -0.01683
H         -5.89004        1.23919       -0.54981
H         -6.89119        2.86703        0.04911
H         -5.89067        1.17276        0.54393
H         -2.46823        0.49952       -1.02778
H         -1.50116       -0.80535       -0.03536
H         -2.47085        0.41750        1.01186
H         -4.81632        2.55013       -0.01088
H         -3.44058       -0.60566       -0.00330

10

C         -5.80754        2.03437        0.02537
C         -2.53728       -0.00935       -0.01623
H         -5.80765        1.24784       -0.79131
H         -6.75059        2.71995        0.04354
H         -5.80509        1.17423        0.78908
H         -2.54474        0.60412       -1.00091
H         -1.61850       -0.73706       -0.03639
H         -2.54430        0.52418        0.99276
H         -4.74008        2.53671       -0.00523
H         -3.55243       -0.61540       -0.00067

10

C         -5.81105        1.96391        0.01959
C         -2.53503       -0.02501       -0.01671
H         -5.80334        1.32216       -0.91341
H         -6.74086        2.67601        0.04020
H         -5.79832        1.24687        0.91547
H         -2.54356        0.61317       -0.98111
H         -1.61196       -0.75428       -0.03639
H         -2.54080        0.53624        0.97500
H         -4.77425        2.51900       -0.00021
H         -3.54900       -0.61847       -0.00240

10

C         -5.81943        1.97478        0.01984
C         -2.52818       -0.10503       -0.02061
H         -5.80849        1.31954       -0.90457
H         -6.75447        2.69074        0.03983
H         -5.80109        1.24887        0.90524
H         -2.53342        0.68165       -0.86433
H         -1.58858       -0.82332       -0.03876
H         -2.52678        0.61353        0.86509
H         -4.78202        2.51569        0.00255
H         -3.56572       -0.63687       -0.00428

10

C         -5.87740        2.00893        0.01853
C         -2.46789       -0.10740       -0.01792
H         -5.84760        1.35895       -0.90202
H         -6.82534        2.74215        0.03597
H         -5.83166        1.30152        0.90230
H         -2.50518        0.60095       -0.90795
H         -1.52672       -0.85704       -0.03439
H         -2.49075        0.54234        0.90723
H         -4.85270        2.52096        0.01469
H         -3.48295       -0.63178       -0.01644

10

C         -5.91727        2.03719        0.01747
C         -2.42489       -0.14546       -0.01801
H         -5.88285        1.37276       -0.89664
H         -6.87214        2.78430        0.03633
H         -5.86608        1.32387        0.89665
H         -2.47550        0.58037       -0.88969
H         -1.46969       -0.89888       -0.03528
H         -2.45969        0.52935        0.88996
H         -4.89252        2.53535        0.02050
H         -3.44754       -0.63927       -0.02129

10

C         -5.88686        2.02965        0.01496
C         -2.45305       -0.12458       -0.01575
H         -5.86794        1.34086       -0.89197
H         -6.86003        2.78228        0.03583
H         -5.84884        1.30404        0.88907
H         -2.49691        0.58426       -0.89980
H         -1.47942       -0.88104       -0.03532
H         -2.47866        0.54332        0.90335
H         -4.87696        2.54949        0.02647
H         -3.45951       -0.64868       -0.02683

10

C         -5.89129        2.02904        0.01611
C         -2.44991       -0.12996       -0.01594
H         -5.86243        1.35326       -0.89733
H         -6.86733        2.77790        0.03796
H         -5.84803        1.31092        0.89561
H         -2.49561        0.58438       -0.89774
H         -1.47315       -0.88156       -0.03757
H         -2.48174        0.54030        0.90034
H         -4.87960        2.55050        0.02123
H         -3.45908       -0.65518       -0.02265

10

C         -5.89009        2.02896        0.01617
C         -2.45148       -0.13276       -0.01594
H         -5.85336        1.35705       -0.89822
H         -6.87418        2.77476        0.03775
H         -5.84165        1.31540        0.89810
H         -2.50127        0.58237       -0.89670
H         -1.46592       -0.87909       -0.03794
H         -2.49019        0.53943        0.89809
H         -4.88164        2.55717        0.02101
H         -3.45840       -0.66370       -0.02231

10

C         -5.88660        2.02941        0.01629
C         -2.45513       -0.13452       -0.01619
H         -5.84092        1.35787       -0.89709
H         -6.88079        2.77016        0.03637
H         -5.83219        1.31886        0.89966
H         -2.51018        0.57928       -0.89732
H         -1.45890       -0.87371       -0.03695
H         -2.50233        0.53884        0.89631
H         -4.88344        2.56792        0.02239
H         -3.45770       -0.67452       -0.02346

10

C         -5.88313        2.03076        0.01675
C         -2.45868       -0.13597       -0.01679
H         -5.82835        1.35763       -0.89483
H         -6.88635        2.76453        0.03425
H         -5.82263        1.32184        0.90088
H         -2.51901        0.57569       -0.89904
H         -1.45361       -0.86743       -0.03482
H         -2.51446        0.53808        0.89465
H         -4.88571        2.57979        0.02443
H         -3.45625       -0.68533       -0.02546

10

C         -5.87952        2.03336        0.01770
C         -2.46238       -0.13809       -0.01783
H         -5.81271        1.35764       -0.89148
H         -6.89265        2.75609        0.03113
H         -5.81108        1.32602        0.90274
H         -2.52933        0.57069       -0.90190
H         -1.44847       -0.85903       -0.03139
H         -2.52924        0.53672        0.89233
H         -4.88974        2.59573        0.02705
H         -3.45305       -0.69953       -0.02834

10

C         -5.87638        2.03730        0.01913
C         -2.46563       -0.14123       -0.01927
H         -5.79463        1.35868       -0.88740
H         -6.89952        2.74462        0.02726
H         -5.79818        1.33213        0.90565
H         -2.54059        0.56406       -0.90577
H         -1.44362       -0.84866       -0.02704
H         -2.54615        0.53452        0.88932
H         -4.89643        2.61596        0.02988
H         -3.44706       -0.71778       -0.03176

10

C         -5.87494        2.04131        0.02041
C         -2.46709       -0.14470       -0.02048
H         -5.78015        1.36090       -0.88428
H         -6.90484        2.73383        0.02418
H         -5.78810        1.33895        0.90894
H         -2.54947        0.55755       -0.90921
H         -1.44007       -0.83960       -0.02367
H         -2.55990        0.53201        0.88667
H         -4.90441        2.63477        0.03175
H         -3.43922       -0.73545       -0.03431

10

C         -5.87488        2.04348        0.02083
C         -2.46700       -0.14697       -0.02081
H         -5.77404        1.36295       -0.88351
H         -6.90705        2.72841        0.02331
H         -5.78357        1.34361        0.91108
H         -2.55400        0.55376       -0.91061
H         -1.43810       -0.83502       -0.02291
H         -2.56634        0.53037        0.88562
H         -4.90993        2.64516        0.03193
H         -3.43327       -0.74615       -0.03491

10

C         -5.87502        2.04389        0.02059
C         -2.46669       -0.14775       -0.02055
H         -5.77368        1.36385       -0.88410
H         -6.90710        2.72777        0.02390
H         -5.78250        1.34532        0.91167
H         -2.55578        0.55267       -0.91044
H         -1.43716       -0.83398       -0.02377
H         -2.56758        0.52978        0.88585
H         -4.91182        2.64787        0.03116
H         -3.43086       -0.74982       -0.03430

10

C         -5.87495        2.04385        0.02020
C         -2.46664       -0.14801       -0.02018
H         -5.77461        1.36419       -0.88485
H         -6.90653        2.72852        0.02487
H         -5.78183        1.34592        0.91162
H         -2.55727        0.55244       -0.90986
H         -1.43654       -0.83378       -0.02495
H         -2.56763        0.52944        0.88644
H         -4.91226        2.64831        0.03010
H         -3.42993       -0.75127       -0.03337

10

C         -5.87473        2.04389        0.01992
C         -2.46681       -0.14816       -0.01992
H         -5.77532        1.36433       -0.88529
H         -6.90605        2.72919        0.02568
H         -5.78085        1.34617        0.91140
H         -2.55878        0.55238       -0.90940
H         -1.43614       -0.83361       -0.02583
H         -2.56765        0.52907        0.88695
H         -4.91221        2.64848        0.02906
H         -3.42965       -0.75214       -0.03255

10

C         -5.87436        2.04416        0.01964
C         -2.46718       -0.14844       -0.01967
H         -5.77617        1.36456       -0.88571
H         -6.90551        2.72990        0.02675
H         -5.77905        1.34653        0.91107
H         -2.56104        0.55230       -0.90883
H         -1.43573       -0.83339       -0.02693
H         -2.56763        0.52838        0.88759
H         -4.91200        2.64887        0.02747
H         -3.42951       -0.75327       -0.03138

10

C         -5.87394        2.04470        0.01940
C         -2.46765       -0.14891       -0.01945
H         -5.77717        1.36496       -0.88600
H         -6.90501        2.73044        0.02800
H         -5.77664        1.34709        0.91073
H         -2.56367        0.55217       -0.90820
H         -1.43550       -0.83325       -0.02815
H         -2.56740        0.52737        0.88827
H         -4.91173        2.64959        0.02538
H         -3.42947       -0.75458       -0.02996

10

C         -5.87350        2.04549        0.01925
C         -2.46816       -0.14956       -0.01930
H         -5.77840        1.36550       -0.88612
H         -6.90462        2.73074        0.02933
H         -5.77386        1.34795        0.91048
H         -2.56626        0.55200       -0.90755
H         -1.43557       -0.83339       -0.02944
H         -2.56678        0.52611        0.88891
H         -4.91142        2.65060        0.02286
H         -3.42961       -0.75585       -0.02840

10

C         -5.87323        2.04614        0.01923
C         -2.46849       -0.15012       -0.01928
H         -5.77939        1.36586       -0.88598
H         -6.90449        2.73079        0.03018
H         -5.77199        1.34880        0.91050
H         -2.56755        0.55186       -0.90718
H         -1.43596       -0.83389       -0.03029
H         -2.56600        0.52517        0.88924
H         -4.91117        2.65139        0.02101
H         -3.42991       -0.75642       -0.02743

10

C         -5.87306        2.04659        0.01929
C         -2.46866       -0.15053       -0.01932
H         -5.78013        1.36594       -0.88567
H         -6.90447        2.73083        0.03063
H         -5.77098        1.34960        0.91075
H         -2.56783        0.55171       -0.90702
H         -1.43648       -0.83459       -0.03078
H         -2.56530        0.52459        0.88936
H         -4.91099        2.65191        0.01979
H         -3.43029       -0.75647       -0.02702

10

C         -5.87286        2.04699        0.01938
C         -2.46883       -0.15095       -0.01941
H         -5.78084        1.36577       -0.88517
H         -6.90440        2.73108        0.03100
H         -5.77015        1.35060        0.91123
H         -2.56773        0.55153       -0.90695
H         -1.43715       -0.83550       -0.03121
H         -2.56466        0.52407        0.88939
H         -4.91073        2.65230        0.01863
H         -3.43083       -0.75629       -0.02688

